omf/scratch/RONM/lehigh_full_newDiesel.dss
clear
set defaultbasefrequency=60
new object=circuit.lehigh basekv=115 pu=1.0001 phases=3 bus1=sourcebus angle=30 mvasc3=20000 mvasc1=21000
edit object=vsource.source basekv=115 bus1=sourcebus.1.2.3 pu=1.00 r1=0 x1=0.0001 r0=0 x0=0.0001
new object=vsource.secondsource basekv=4.16 bus1=680.1.2.3 pu=1.00 r1=0 x1=0.0001 r0=0 x0=0.0001
new object=transformer.sub phases=3 windings=2 xhl=0.008 buses=[sourcebus.1.2.3,650.1.2.3] conns=[delta,wye] kvs=[115,4.16] kvas=[5000,5000] %rs=[0.0005,0.0005]
new object=transformer.reg1 phases=1 bank=reg1 xhl=0.01 kvas=[1666,1666] buses=[650.1,rg60.1] kvs=[2.4,2.4] %loadloss=0.01
new object=regcontrol.reg1 transformer=reg1 winding=2 vreg=122 band=2 ptratio=20 ctprim=700 r=3 x=9
new object=transformer.reg2 phases=1 bank=reg1 xhl=0.01 kvas=[1666,1666] buses=[650.2,rg60.2] kvs=[2.4,2.4] %loadloss=0.01
new object=regcontrol.reg2 transformer=reg2 winding=2 vreg=122 band=2 ptratio=20 ctprim=700 r=3 x=9
new object=transformer.reg3 phases=1 bank=reg1 xhl=0.01 kvas=[1666,1666] buses=[650.3,rg60.3] kvs=[2.4,2.4] %loadloss=0.01
new object=regcontrol.reg3 transformer=reg3 winding=2 vreg=122 band=2 ptratio=20 ctprim=700 r=3 x=9
new object=transformer.xfm1 phases=3 windings=2 xhl=2 buses=[633.1.2.3,634.1.2.3] conns=[wye,wye] kvs=[4.16,0.480] kvas=[500,500] %rs=[0.55,0.55] xht=1 xlt=1
new object=linecode.mtx601 nphases=3 basefreq=60 rmatrix=[0.3465|0.1560,0.3375|0.1580,0.1535,0.3414] xmatrix=[1.0179|0.5017,1.0478|0.4236,0.3849,1.0348] units=mi
new object=linecode.mtx602 nphases=3 basefreq=60 rmatrix=[0.7526|0.1580,0.7475|0.1560,0.1535,0.7436] xmatrix=[1.1814|0.4236,1.1983|0.5017,0.3849,1.2112] units=mi
new object=linecode.mtx603 nphases=2 basefreq=60 rmatrix=[1.3238|0.2066,1.3294] xmatrix=[1.3569|0.4591,1.3471] units=mi
new object=linecode.mtx604 nphases=2 basefreq=60 rmatrix=[1.3238|0.2066,1.3294] xmatrix=[1.3569|0.4591,1.3471] units=mi
new object=linecode.mtx605 nphases=1 basefreq=60 rmatrix=[1.3292] xmatrix=[1.3475] units=mi
new object=linecode.mtx606 nphases=3 units=mi rmatrix=[0.791721|0.318476,0.781649|0.28345,0.318476,0.791721] xmatrix=[0.438352|0.0276838,0.396697|-0.0184204,0.0276838,0.438352] cmatrix=[383.948|0,383.948|0,0,383.948]
new object=linecode.mtx607 nphases=1 basefreq=60 rmatrix=[1.3425] xmatrix=[0.5124] cmatrix=[236] units=mi

new object=loadshape.NewDiesel_646_shape npts=8760 interval=1 useactual=no mult=[0.180749, 0.165314, 0.162028, 0.160885, 0.180544, 0.222345, 0.270552, 0.246008, 0.217675, 0.04275999999999999, -0.045632000000000006, -0.018564999999999998, -0.016216000000000008, -0.04572899999999999, -0.023228, 0.10825100000000001, 0.236604, 0.336047, 0.38776, 0.378728, 0.374884, 0.327085, 0.270388, 0.223752, 0.19609, 0.195972, 0.19843, 0.200612, 0.22312, 0.268576, 0.318971, 0.292986, 0.081847, -0.12864400000000004, -0.27286600000000005, -0.323827, -0.317612, -0.27891699999999997, -0.167867, 0.06431700000000001, 0.256283, 0.338589, 0.390309, 0.38492, 0.385708, 0.339907, 0.283046, 0.237759, 0.211212, 0.212448, 0.21574, 0.218875, 0.242179, 0.288582, 0.343026, 0.309977, 0.08874600000000002, -0.119399, -0.26561599999999996, -0.31328, -0.304885, -0.240729, -0.02352299999999999, 0.138338, 0.308466, 0.348298, 0.389475, 0.384612, 0.384155, 0.338707, 0.280462, 0.228641, 0.197174, 0.194161, 0.190279, 0.189921, 0.211881, 0.252041, 0.297316, 0.270967, 0.16636700000000001, -0.07566899999999999, 0.093832, -0.25987899999999997, -0.17258500000000002, -0.03909099999999999, -0.06242600000000001, 0.009940000000000004, 0.25015, 0.335662, 0.38407, 0.375159, 0.371114, 0.32089, 0.257137, 0.202948, 0.168891, 0.163479, 0.160774, 0.159421, 0.178509, 0.22023, 0.269118, 0.246888, 0.239375, 0.20373600000000003, 0.14053800000000002, 0.03174300000000002, 0.259299, 0.07778399999999996, 0.016466000000000036, 0.377921, 0.47337, 0.48941, 0.483081, 0.457689, 0.447755, 0.389833, 0.311772, 0.243592, 0.189855, 0.182609, 0.178189, 0.170261, 0.19013, 0.236032, 0.292968, 0.28931, 0.31576800000000005, 0.016179, -0.05624499999999999, -0.07454000000000005, -0.05526300000000006, 0.018371000000000026, 0.12853800000000004, 0.282768, 0.46470399999999995, 0.518498, 0.553244, 0.530354, 0.527973, 0.395047, 0.265194, 0.203845, 0.169236, 0.163497, 0.161118, 0.160226, 0.179703, 0.22171, 0.270702, 0.246547, 0.202578, 0.163766, 0.153218, 0.170182, 0.11452599999999999, 0.151557, 0.140453, 0.24870799999999998, 0.339803, 0.380526, 0.418577, 0.40546, 0.398884, 0.344898, 0.270789, 0.207999, 0.170194, 0.16358, 0.16078, 0.159432, 0.178512, 0.220526, 0.269688, 0.249695, 0.16235200000000002, 0.10563199999999998, 0.23623300000000003, 0.22814999999999996, 0.21404099999999998, 0.271273, 0.287168, 0.322693, 0.508987, 0.534162, 0.508814, 0.44744, 0.408362, 0.341989, 0.265065, 0.205478, 0.170747, 0.168617, 0.169568, 0.171938, 0.193489, 0.237157, 0.286853, 0.262303, 0.051092000000000026, -0.13391499999999998, -0.10611400000000004, -0.14938099999999999, -0.16569199999999995, 0.061522999999999994, 0.08370799999999995, 0.28188799999999997, 0.419591, 0.467236, 0.465195, 0.421221, 0.40284, 0.347586, 0.276904, 0.217862, 0.179576, 0.173392, 0.1674, 0.164845, 0.184657, 0.227521, 0.279358, 0.268125, 0.259902, 0.24973099999999998, 0.11777399999999999, -0.15266600000000002, -0.183865, -0.12384800000000001, -0.003915000000000002, 0.154222, 0.382191, 0.483652, 0.500144, 0.47052, 0.458673, 0.386748, 0.294377, 0.224216, 0.178917, 0.16715, 0.16163, 0.159421, 0.178771, 0.220994, 0.270022, 0.24758, 0.054397, 0.010043999999999997, -0.290458, -0.32168, -0.136453, 0.02948299999999998, 0.370683, 0.40945299999999996, 0.503668, 0.497169, 0.515576, 0.452495, 0.395922, 0.334788, 0.264034, 0.205578, 0.169137, 0.164309, 0.16291, 0.163032, 0.183044, 0.225511, 0.275608, 0.257153, 0.17283900000000002, -0.008193000000000006, 0.149317, -0.16691399999999998, -0.335477, -0.338482, -0.232595, -0.049982, 0.20739500000000002, 0.340423, 0.402467, 0.395744, 0.395199, 0.350005, 0.289637, 0.241033, 0.215209, 0.217115, 0.220498, 0.223737, 0.247099, 0.292443, 0.342032, 0.317676, 0.10832299999999997, -0.12696500000000002, -0.299998, -0.380819, -0.28452500000000003, -0.215877, -0.17438400000000004, 0.044121999999999995, 0.22836099999999998, 0.32563, 0.38407, 0.375159, 0.371114, 0.320936, 0.257316, 0.203108, 0.168926, 0.163479, 0.160774, 0.159433, 0.178688, 0.220661, 0.269245, 0.244871, 0.20755099999999999, 0.18718600000000002, 0.04896800000000001, -0.07828299999999999, 0.018737000000000004, -0.014974000000000043, 0.26202899999999996, 0.130701, 0.326212, 0.435445, 0.468557, 0.450673, 0.432849, 0.366558, 0.294751, 0.235669, 0.186735, 0.174539, 0.170141, 0.165833, 0.181371, 0.222567, 0.272083, 0.250761, 0.10904900000000003, 0.168187, 0.312639, 0.29967, 0.32428199999999996, 0.307744, 0.3551890000000001, 0.347242, 0.519424, 0.597002, 0.56377, 0.506793, 0.477395, 0.41595, 0.334087, 0.248608, 0.19097, 0.175474, 0.166251, 0.162754, 0.180197, 0.221876, 0.271402, 0.250819, 0.186847, 0.11669199999999999, 0.217455, 0.28589, 0.301331, 0.350808, 0.313157, 0.34035400000000005, 0.508681, 0.57915, 0.58152, 0.545387, 0.509653, 0.429696, 0.312562, 0.225665, 0.17873, 0.169299, 0.165163, 0.161956, 0.179834, 0.221636, 0.271378, 0.22437100000000001, 0.07491599999999998, -0.068988, -0.15048, -0.14380700000000002, -0.11103600000000002, -0.04583700000000002, 0.04037999999999997, 0.15550000000000003, 0.374849, 0.468505, 0.492694, 0.464885, 0.444395, 0.381078, 0.304403, 0.239165, 0.194763, 0.181889, 0.166664, 0.160418, 0.178835, 0.221208, 0.270377, 0.218, 0.062055, -0.06081399999999998, -0.14375699999999997, -0.180323, -0.17297200000000001, -0.07010100000000002, 0.013068000000000024, 0.165819, 0.39829000000000003, 0.502655, 0.505707, 0.466639, 0.435882, 0.369001, 0.296316, 0.234176, 0.186641, 0.172975, 0.169003, 0.166257, 0.183859, 0.226708, 0.280871, 0.21884099999999998, 0.046539000000000025, -0.08873799999999998, -0.15387700000000004, -0.12025999999999998, -0.07665200000000005, -0.006508999999999987, 0.06349500000000002, 0.19392800000000004, 0.415962, 0.525939, 0.542542, 0.512939, 0.496939, 0.429066, 0.341724, 0.26576, 0.203514, 0.184559, 0.17481, 0.167712, 0.18474, 0.225375, 0.275128, 0.258207, 0.10664799999999999, 0.03259899999999999, -0.022314000000000056, -0.08957200000000004, -0.08345000000000002, -0.01767299999999994, 0.05171300000000001, 0.202233, 0.450277, 0.536773, 0.556857, 0.526953, 0.506023, 0.446421, 0.366147, 0.290968, 0.232816, 0.213238, 0.203483, 0.196743, 0.214115, 0.259268, 0.317342, 0.306643, 0.13824199999999998, -0.0006659999999999999, -0.11596999999999996, -0.11977499999999996, -0.10191999999999996, -0.22966800000000004, -0.007689999999999975, -0.009820999999999969, 0.191015, 0.367059, 0.447545, 0.456828, 0.462353, 0.41696, 0.344589, 0.269349, 0.223198, 0.211652, 0.197856, 0.191791, 0.211452, 0.265219, 0.333241, 0.31773, 0.233716, 0.19545, 0.305324, 0.292664, 0.315, 0.30801500000000004, 0.351237, 0.32411199999999996, 0.458389, 0.544005, 0.570478, 0.548752, 0.526986, 0.457951, 0.374884, 0.294993, 0.237277, 0.221341, 0.211544, 0.204453, 0.21524, 0.254242, 0.316521, 0.320151, 0.346322, 0.30804899999999996, -0.006377999999999995, -0.056172, -0.06733199999999995, -0.01822199999999996, 0.08673799999999998, 0.27991199999999994, 0.524848, 0.60601, 0.587191, 0.540984, 0.516967, 0.452551, 0.369512, 0.295239, 0.2346, 0.199002, 0.178042, 0.170615, 0.189496, 0.230426, 0.277477, 0.262165, 0.14790499999999998, 0.06420799999999999, -0.032783999999999924, -0.07894000000000001, -0.08629399999999998, 0.002595000000000014, 0.09371199999999996, 0.20839999999999997, 0.418222, 0.537936, 0.569799, 0.532705, 0.512859, 0.447942, 0.365837, 0.293183, 0.234226, 0.220346, 0.219689, 0.215436, 0.233827, 0.261545, 0.300513, 0.24606099999999997, 0.17392, 0.09401399999999999, -0.0010569999999999746, -0.021147999999999945, -0.0067829999999999835, 0.04730599999999996, 0.13147100000000006, 0.27785299999999996, 0.502437, 0.57529, 0.563498, 0.511803, 0.4798, 0.406111, 0.322852, 0.255551, 0.20879, 0.197048, 0.186373, 0.175889, 0.188895, 0.229004, 0.280373, 0.265206, 0.155518, 0.049070999999999976, -0.063996, -0.09204299999999999, -0.07829999999999993, -0.012823999999999947, 0.06362000000000007, 0.24401899999999999, 0.49411099999999997, 0.564108, 0.56988, 0.536955, 0.514115, 0.444961, 0.361899, 0.288933, 0.235058, 0.219228, 0.203272, 0.192254, 0.214071, 0.26501, 0.325141, 0.319076, 0.317878, 0.11123, 0.08328000000000002, 0.08878199999999997, 0.07189899999999999, 0.28983400000000004, 0.20373900000000006, 0.40296200000000004, 0.45331099999999996, 0.50897, 0.541608, 0.505815, 0.475175, 0.392694, 0.302519, 0.231111, 0.182682, 0.174946, 0.17345, 0.170427, 0.188911, 0.23295, 0.2952, 0.21555000000000002, -0.02767599999999998, -0.231538, -0.239454, -0.147459, -0.09959300000000004, -0.08555400000000002, 0.207322, 0.16606900000000002, 0.34901200000000004, 0.473039, 0.469367, 0.412824, 0.388807, 0.330641, 0.260478, 0.203992, 0.170392, 0.167399, 0.166969, 0.167844, 0.186961, 0.228407, 0.278409, 0.210026, 0.091946, -0.03572700000000001, 0.04692099999999999, 0.02953800000000001, 0.08063200000000001, 0.069914, 0.10892199999999999, 0.139531, 0.295369, 0.385682, 0.40673, 0.384907, 0.375952, 0.323608, 0.259903, 0.208343, 0.177121, 0.173911, 0.173085, 0.173044, 0.193476, 0.236526, 0.286874, 0.25894, 0.09620000000000001, -0.042017, -0.11804899999999996, -0.10400899999999996, -0.07935700000000001, 0.24168700000000004, 0.23859700000000003, 0.248001, 0.371577, 0.403789, 0.417761, 0.389535, 0.377993, 0.323318, 0.25826, 0.205969, 0.175312, 0.174068, 0.175397, 0.178677, 0.202924, 0.248174, 0.296386, 0.253671, 0.210326, 0.115892, 0.03147799999999998, -0.17163299999999998, 0.01137100000000002, 0.16615200000000002, 0.10869100000000001, 0.11554800000000001, 0.35541, 0.383552, 0.405332, 0.381507, 0.374484, 0.322636, 0.259177, 0.206424, 0.173699, 0.169738, 0.168565, 0.168027, 0.187015, 0.227813, 0.276973, 0.24068900000000001, 0.197105, 0.08108400000000002, 0.148502, 0.006709999999999994, 0.107742, 0.13190000000000002, 0.22440800000000002, 0.394162, 0.336765, 0.440528, 0.442795, 0.408818, 0.391647, 0.334015, 0.263383, 0.206209, 0.169675, 0.163896, 0.161883, 0.160758, 0.180255, 0.22361, 0.273899, 0.178761, -0.014873999999999998, -0.182253, -0.25224799999999997, -0.28075500000000003, -0.27891099999999996, -0.22296699999999997, -0.15612899999999996, -0.005445000000000033, 0.24355700000000002, 0.411971, 0.477011, 0.447942, 0.405932, 0.329525, 0.263139, 0.209635, 0.17253, 0.166515, 0.164443, 0.163873, 0.185112, 0.228607, 0.280513, 0.194989, 0.0009270000000000111, -0.15359, -0.23036700000000004, -0.21055500000000005, -0.15479699999999996, -0.10438800000000004, -0.0015209999999999946, 0.265942, 0.424078, 0.496498, 0.52303, 0.48427, 0.440165, 0.348925, 0.270869, 0.208705, 0.171509, 0.16487, 0.161234, 0.159421, 0.178509, 0.22023, 0.269134, 0.235199, 0.14049899999999999, 0.04724300000000001, -0.18093900000000002, -0.263498, -0.274176, -0.08236299999999999, -0.092941, -0.046767999999999976, 0.18278499999999998, 0.333078, 0.406113, 0.387272, 0.377991, 0.323099, 0.257204, 0.203581, 0.170483, 0.166006, 0.163771, 0.16361, 0.183195, 0.223637, 0.272194, 0.175567, -0.024623000000000006, -0.003228999999999982, 0.03138400000000002, 0.051051999999999986, 0.057642, 0.006845999999999991, 0.020748000000000016, 0.014374999999999999, 0.19354800000000003, 0.344622, 0.410752, 0.391741, 0.380669, 0.327042, 0.259506, 0.203263, 0.168891, 0.163479, 0.160774, 0.159421, 0.178533, 0.220267, 0.269123, 0.175658, -0.012787999999999966, -0.18734700000000004, -0.3079430000000001, -0.343987, -0.343711, -0.30495999999999995, -0.186875, -0.028322999999999987, 0.223883, 0.388484, 0.448053, 0.425513, 0.416684, 0.361221, 0.291905, 0.221972, 0.174786, 0.174022, 0.169563, 0.164762, 0.188384, 0.234883, 0.290753, 0.23914099999999996, 0.16274699999999998, -0.080569, -0.17309699999999995, -0.18844699999999992, -0.05350599999999994, -0.09068500000000002, 0.09360500000000005, 0.20512499999999995, 0.493491, 0.567103, 0.589191, 0.544607, 0.523113, 0.422876, 0.308242, 0.247442, 0.201793, 0.185269, 0.17436, 0.171611, 0.191122, 0.22974, 0.276954, 0.239026, 0.022305999999999993, -0.176948, -0.308808, -0.349549, -0.272688, -0.19693499999999997, -0.127959, 0.09645200000000004, 0.330187, 0.469078, 0.459704, 0.40539, 0.386706, 0.32807, 0.259856, 0.205037, 0.173223, 0.169569, 0.168829, 0.168868, 0.18863, 0.23168, 0.281708, 0.227093, 0.190848, 0.142449, 0.132359, 0.04033400000000001, -0.012564999999999993, 0.003977000000000008, 0.16362399999999996, 0.15135200000000001, 0.32629400000000003, 0.380191, 0.408736, 0.382571, 0.374833, 0.323616, 0.261141, 0.209977, 0.180493, 0.178868, 0.180188, 0.183224, 0.205074, 0.248542, 0.297673, 0.237354, 0.13595200000000002, 0.11212100000000001, 0.022501999999999994, -0.255676, -0.359619, -0.301801, -0.20910099999999998, 0.026207000000000008, 0.196814, 0.313336, 0.386492, 0.378966, 0.378326, 0.330812, 0.268183, 0.215029, 0.182593, 0.178713, 0.178468, 0.179318, 0.200211, 0.242895, 0.291046, 0.18264699999999998, 0.016047000000000006, -0.050674, -0.01305400000000001, -0.025440000000000018, -0.05287800000000001, -0.21964499999999998, -0.1951, -0.14347500000000002, 0.155754, 0.305055, 0.386241, 0.379048, 0.378088, 0.330762, 0.270109, 0.221235, 0.191999, 0.188319, 0.186875, 0.188001, 0.213102, 0.259953, 0.309236, 0.21374200000000002, 0.082453, 0.05967, 0.070441, 0.043379, 0.066573, 0.07886199999999999, 0.10053999999999999, 0.14668199999999998, 0.20886599999999997, 0.361829, 0.400711, 0.378484, 0.371624, 0.321122, 0.258697, 0.207134, 0.175991, 0.173389, 0.17366, 0.174078, 0.195249, 0.240315, 0.289757, 0.17835700000000002, 0.015120999999999996, -0.139735, -0.320302, -0.283952, -0.30028600000000005, -0.230589, -0.18733900000000003, 0.022056999999999993, 0.24505300000000002, 0.406438, 0.424082, 0.391775, 0.38028, 0.326744, 0.26001, 0.203654, 0.168894, 0.163505, 0.160963, 0.160181, 0.180502, 0.224307, 0.273599, 0.16111999999999999, -0.008319999999999994, -0.048616999999999966, -0.277683, -0.3223349999999999, 0.03620699999999999, -0.23443800000000004, 0.02102599999999999, 0.08455099999999999, 0.28184000000000003, 0.440452, 0.460865, 0.422917, 0.406597, 0.348618, 0.275537, 0.215097, 0.174172, 0.166482, 0.163359, 0.161184, 0.178841, 0.220454, 0.269617, 0.197527, 0.09827500000000003, 0.059004999999999974, 0.14799599999999996, 0.03581699999999999, -0.155708, -0.09483199999999997, 0.04353499999999999, 0.148833, 0.39313499999999996, 0.495093, 0.505094, 0.46083, 0.433219, 0.366062, 0.285894, 0.217654, 0.174172, 0.166234, 0.162278, 0.15996, 0.178567, 0.220513, 0.269812, 0.193528, 0.174449, 0.03539199999999998, -0.044014, -0.060177000000000036, -0.09402400000000005, -0.13099799999999995, -0.135967, 0.04677700000000001, 0.30851799999999996, 0.458456, 0.484277, 0.448355, 0.422468, 0.368902, 0.302982, 0.237094, 0.191795, 0.183137, 0.177556, 0.173609, 0.192212, 0.237168, 0.283843, 0.21523199999999998, 0.06713000000000002, -0.057035999999999976, -0.023551000000000044, -0.07453499999999996, -0.08907000000000004, -0.13033300000000003, -0.015189999999999981, 0.11777199999999999, 0.33841600000000005, 0.501525, 0.507759, 0.471714, 0.454607, 0.396423, 0.318997, 0.24934, 0.20242, 0.192331, 0.192155, 0.188454, 0.203448, 0.247939, 0.294662, 0.23653199999999996, 0.11968199999999998, 0.015549000000000035, -0.05023500000000003, -0.04977799999999999, -0.03837299999999999, -0.025162000000000018, 0.247871, 0.17212500000000003, 0.37048499999999995, 0.540334, 0.568349, 0.536419, 0.515712, 0.447965, 0.365398, 0.298323, 0.249313, 0.235604, 0.228692, 0.224879, 0.24348, 0.291105, 0.339677, 0.296743, 0.19353099999999998, 0.177169, 0.30369199999999996, 0.29729800000000006, 0.320827, 0.325029, 0.33905399999999997, 0.507252, 0.442863, 0.579709, 0.621035, 0.586035, 0.558488, 0.487478, 0.402894, 0.330231, 0.271081, 0.256281, 0.245081, 0.238375, 0.25371, 0.293674, 0.343405, 0.25717, 0.176742, 0.246454, 0.298644, 0.31709000000000004, 0.3262, 0.31337000000000004, 0.34722299999999995, 0.331953, 0.3385429999999999, 0.528979, 0.598044, 0.585864, 0.56273, 0.492519, 0.410099, 0.337155, 0.284396, 0.266717, 0.247957, 0.232286, 0.238328, 0.276768, 0.338618, 0.23961400000000002, 0.04019499999999998, -0.16264399999999996, -0.17040699999999998, -0.20962999999999998, -0.22238999999999998, -0.1523190000000001, -0.03351700000000002, 0.251076, 0.4100480000000001, 0.575316, 0.607493, 0.571397, 0.547834, 0.487289, 0.407519, 0.325694, 0.272213, 0.26355, 0.248303, 0.233077, 0.246389, 0.291232, 0.34135, 0.24713399999999996, 0.11924600000000002, -0.02626099999999998, -0.12695, -0.156497, -0.15681999999999996, -0.08002299999999996, 0.027343000000000006, 0.26546899999999996, 0.45905199999999996, 0.6085440000000001, 0.61677, 0.569631, 0.54423, 0.47291, 0.383407, 0.311618, 0.269008, 0.260524, 0.251979, 0.24622, 0.263383, 0.309721, 0.359573, 0.352228, 0.397427, 0.412575, 0.409408, -0.11134900000000003, -0.10776200000000002, -0.06810800000000006, -0.02682300000000004, 0.14158700000000002, 0.377938, 0.536201, 0.596485, 0.574159, 0.554298, 0.478834, 0.369368, 0.288565, 0.233742, 0.208361, 0.20795, 0.211627, 0.23292, 0.285692, 0.337319, 0.298137, 0.20763199999999998, 0.07995599999999997, -0.029530999999999974, -0.12002400000000002, -0.10356699999999996, -0.061455999999999955, 0.06405799999999995, 0.25090200000000007, 0.483393, 0.632181, 0.625032, 0.566731, 0.548371, 0.481892, 0.389485, 0.31424, 0.26307, 0.255113, 0.244685, 0.24085, 0.267529, 0.317318, 0.377927, 0.319291, 0.18756399999999998, 0.032040999999999986, -0.024610999999999994, 0.428727, 0.487241, 0.520738, 0.350582, 0.217883, 0.359188, 0.443712, 0.484485, 0.453133, 0.412339, 0.33921, 0.263014, 0.203629, 0.171096, 0.168359, 0.167636, 0.167835, 0.188654, 0.233482, 0.275266, 0.11432799999999999, 0.0004380000000000217, -0.022315, 0.05859700000000001, 0.052190000000000014, 0.059252, 0.10478399999999999, 0.10420200000000002, 0.156679, 0.16724599999999998, 0.380108, 0.419171, 0.388845, 0.377827, 0.324401, 0.258651, 0.203857, 0.171875, 0.168993, 0.168648, 0.168942, 0.188889, 0.231114, 0.27009, 0.14235599999999998, 0.017646999999999996, -0.11455499999999996, -0.21110099999999998, -0.08699800000000002, 0.10692299999999999, 0.06944499999999998, 0.02897000000000005, 0.08071300000000003, 0.25049699999999997, 0.395887, 0.476813, 0.470278, 0.461746, 0.403929, 0.323645, 0.262929, 0.213344, 0.194124, 0.186139, 0.177076, 0.190252, 0.234155, 0.274169, 0.19154499999999997, 0.09090500000000001, -0.042984999999999995, -0.14172200000000001, -0.18225100000000005, -0.03314299999999992, 0.02255499999999999, 0.08420099999999997, 0.17089500000000002, 0.467762, 0.578292, 0.599921, 0.523281, 0.470351, 0.384304, 0.291527, 0.220341, 0.174915, 0.165717, 0.16116, 0.160634, 0.181688, 0.225474, 0.256243, 0.15425899999999998, 0.07106899999999997, -0.10752299999999998, -0.21575699999999998, -0.375452, -0.259711, -0.283404, -0.11858000000000002, 0.02464099999999997, 0.28567600000000004, 0.461544, 0.488115, 0.436839, 0.408608, 0.33935, 0.262897, 0.205909, 0.170081, 0.165001, 0.164332, 0.164058, 0.184365, 0.22652, 0.255334, 0.240506, 0.280256, 0.316646, 0.286887, 0.264091, 0.160248, 0.229612, 0.27978800000000004, 0.255638, 0.319608, 0.423283, 0.465929, 0.439219, 0.420648, 0.358108, 0.283959, 0.221174, 0.179337, 0.170582, 0.165583, 0.163214, 0.183015, 0.227753, 0.261919, 0.12045400000000003, -0.03738600000000003, -0.19088099999999997, -0.305427, -0.31744000000000006, -0.310447, -0.228429, -0.10348599999999997, 0.05512100000000003, 0.29170500000000005, 0.487056, 0.564087, 0.533225, 0.514316, 0.453628, 0.371991, 0.298765, 0.248384, 0.235092, 0.21989, 0.207667, 0.223655, 0.269419, 0.311375, 0.19630300000000003, 0.029891, -0.12908200000000003, -0.04029299999999997, -0.010454000000000074, -0.010199000000000069, 0.29043500000000005, 0.211262, 0.252922, 0.35499899999999995, 0.5493750000000001, 0.601541, 0.572427, 0.548594, 0.478952, 0.393862, 0.319208, 0.260103, 0.23874, 0.231635, 0.234117, 0.258829, 0.299747, 0.334371, 0.288059, 0.221043, 0.158526, 0.288966, 0.37464899999999995, 0.391205, 0.34896000000000005, 0.366835, 0.31262300000000004, 0.42876200000000003, 0.569328, 0.602569, 0.576467, 0.554622, 0.483498, 0.393118, 0.312831, 0.248948, 0.236547, 0.232306, 0.21248, 0.22841, 0.282423, 0.325506, 0.167243, -0.01806599999999997, -0.0021680000000000033, -0.25518599999999997, -0.36916399999999994, -0.14065, -0.28286400000000006, -0.16516599999999998, 0.024264000000000008, 0.303412, 0.465252, 0.521463, 0.505429, 0.491791, 0.428343, 0.342155, 0.263981, 0.204727, 0.190311, 0.181366, 0.173754, 0.189689, 0.230592, 0.264202, 0.19039499999999998, -0.096248, -0.28262899999999996, -0.38338800000000006, -0.42111200000000004, -0.39596300000000006, -0.316853, -0.166082, 0.003688999999999998, 0.254684, 0.451212, 0.522335, 0.508825, 0.495699, 0.429371, 0.342431, 0.262805, 0.207435, 0.194812, 0.184, 0.177688, 0.195554, 0.239853, 0.277132, 0.180931, 0.08174399999999998, -0.020083000000000018, -0.18036999999999997, -0.28451899999999997, -0.28798199999999996, -0.168286, -0.014172000000000018, 0.119867, 0.40312899999999996, 0.495858, 0.528659, 0.506684, 0.490744, 0.42171, 0.333864, 0.262216, 0.213202, 0.203728, 0.200258, 0.203014, 0.227205, 0.274638, 0.308805, 0.16757799999999998, 0.123863, -0.09271900000000005, -0.20071999999999995, -0.26793999999999996, -0.25343099999999996, -0.146015, -0.03047999999999995, 0.15360200000000002, 0.40154300000000004, 0.573306, 0.606537, 0.568962, 0.548552, 0.477619, 0.385391, 0.31208, 0.262828, 0.256206, 0.246182, 0.232954, 0.248917, 0.296076, 0.32781600000000005, 0.217843, -0.015022999999999953, -0.24002900000000005, -0.31119099999999994, -0.339934, -0.38604000000000005, -0.362907, -0.24581599999999998, -0.054495000000000016, 0.2007, 0.360075, 0.416572, 0.400754, 0.386855, 0.328355, 0.25966, 0.203075, 0.169664, 0.166, 0.165378, 0.165587, 0.18609, 0.228626, 0.233211, 0.05271999999999999, -0.18822999999999998, -0.36296399999999995, -0.31551599999999996, -0.29694, -0.29533, -0.22869, 0.04263800000000001, 0.070629, 0.145566, 0.372182, 0.444218, 0.433509, 0.423234, 0.367072, 0.287906, 0.221475, 0.176831, 0.171894, 0.167302, 0.185357, 0.226656, 0.273283, 0.253674, 0.073568, 0.044681, 0.056897, 0.202493, 0.189048, 0.17142500000000002, 0.238452, 0.24788400000000002, 0.308188, 0.46938499999999994, 0.533783, 0.505962, 0.479599, 0.413068, 0.324232, 0.246662, 0.19992, 0.193712, 0.186938, 0.179032, 0.197921, 0.243409, 0.303544, 0.292803, 0.184215, 0.15665300000000001, -0.04788999999999999, 0.19587, -0.063199, -0.052512, 0.062429999999999986, 0.409481, 0.666454, 0.726068, 0.681095, 0.669818, 0.627971, 0.547861, 0.455186, 0.375823, 0.313949, 0.288741, 0.27643, 0.268065, 0.283382, 0.322823, 0.373283, 0.361726, 0.232373, 0.054125000000000034, 0.09467100000000006, -0.02889200000000003, -0.23684899999999998, 0.15130500000000002, 0.03361400000000003, -0.03757300000000002, 0.19526900000000003, 0.492593, 0.556004, 0.504126, 0.459905, 0.375419, 0.277546, 0.205808, 0.169155, 0.165741, 0.165853, 0.166969, 0.187715, 0.23029, 0.280268, 0.253178, 0.04292800000000002, -0.202919, -0.38841899999999996, -0.48988, -0.539112, -0.5559700000000001, -0.500641, -0.136454, -0.08702200000000004, 0.30496300000000004, 0.337916, 0.364011, 0.372452, 0.323106, 0.261939, 0.212304, 0.184297, 0.185798, 0.190698, 0.195314, 0.217501, 0.262917, 0.314623, 0.294153, 0.11282400000000004, -0.075464, -0.280295, -0.510347, -0.566202, -0.31789999999999996, -0.06436600000000003, -0.03943600000000003, 0.16098999999999997, 0.24969799999999998, 0.341398, 0.361068, 0.37133, 0.32126, 0.258598, 0.20566, 0.173423, 0.169485, 0.168409, 0.168442, 0.188236, 0.232428, 0.283048, 0.280082, 0.236322, 0.17235399999999998, 0.037404999999999994, -0.06406200000000001, -0.06796199999999997, 0.0014560000000000128, -0.18104699999999996, -0.08181899999999998, 0.03367399999999998, 0.174027, 0.338209, 0.384889, 0.380086, 0.326421, 0.259689, 0.203597, 0.168891, 0.163479, 0.160774, 0.159425, 0.178567, 0.220248, 0.269118, 0.231796, -0.0011469999999999814, -0.21432400000000001, -0.31773000000000007, -0.25146100000000005, -0.25392099999999995, -0.252676, 0.016589999999999994, 0.021523999999999988, 0.133453, 0.252781, 0.447118, 0.512094, 0.49888, 0.432257, 0.353853, 0.284538, 0.232707, 0.218908, 0.210233, 0.205129, 0.235048, 0.293706, 0.357872, 0.326032, 0.042939000000000005, -0.045599, 0.01905599999999999, -0.013793, 0.0009699999999999986, -0.0024349999999999927, -0.0019539999999999835, -0.019926, 0.04263800000000001, 0.063328, 0.274891, 0.359833, 0.371384, 0.321856, 0.259753, 0.207298, 0.175269, 0.171852, 0.172183, 0.173237, 0.194522, 0.237903, 0.289396, 0.243296, 0.03707000000000002, -0.203039, -0.402162, -0.522367, -0.570872, -0.567799, -0.515848, -0.40076599999999996, -0.159402, 0.07489800000000002, 0.28506699999999996, 0.359737, 0.37139, 0.321004, 0.258763, 0.207064, 0.176269, 0.174636, 0.175545, 0.17748, 0.197956, 0.240438, 0.291825, 0.242452, 0.034711999999999965, -0.20882500000000004, -0.41299600000000003, -0.50911, -0.549696, -0.527755, -0.46417800000000004, -0.31262199999999996, -0.06719600000000003, 0.179077, 0.36357, 0.401012, 0.383417, 0.324004, 0.25754, 0.202933, 0.168987, 0.164942, 0.163982, 0.164485, 0.186117, 0.229021, 0.278671, 0.22461299999999998, 0.018248000000000014, -0.22330799999999998, -0.39508, -0.467522, -0.500909, -0.47287199999999996, -0.37642300000000006, -0.17542100000000005, 0.01790400000000003, 0.22664500000000004, 0.392458, 0.432475, 0.418062, 0.348307, 0.272787, 0.212047, 0.173939, 0.166489, 0.162678, 0.161375, 0.18087, 0.223002, 0.276416, 0.22438400000000003, 0.03354499999999999, -0.16957699999999998, -0.32075699999999996, -0.37429500000000004, -0.4326380000000001, -0.41422899999999996, -0.329716, -0.199577, 0.03581300000000004, 0.256963, 0.443145, 0.505607, 0.488961, 0.422638, 0.342571, 0.272259, 0.217864, 0.198612, 0.191009, 0.185307, 0.199414, 0.24122, 0.299175, 0.296109, 0.132659, 0.19565999999999997, 0.007648999999999961, -0.176008, -0.168748, -0.16697499999999998, -0.11371799999999999, -0.06692599999999999, 0.09087700000000004, 0.314845, 0.47412300000000007, 0.531093, 0.515273, 0.443726, 0.356589, 0.283103, 0.2257, 0.204495, 0.195223, 0.188685, 0.202787, 0.244383, 0.29885, 0.25650900000000004, 0.05522000000000002, -0.10647800000000002, -0.16402199999999995, -0.05801200000000001, -0.08991900000000003, -0.08489399999999997, 0.181263, 0.22380999999999995, 0.31388600000000005, 0.372277, 0.542478, 0.565567, 0.54732, 0.476717, 0.39275, 0.317135, 0.265309, 0.251421, 0.235079, 0.221138, 0.233992, 0.270481, 0.319976, 0.277044, 0.07753000000000004, 0.155199, 0.24174899999999996, 0.26108200000000004, 0.30345300000000003, 0.337914, 0.34946599999999994, 0.407354, 0.34526699999999994, 0.32924800000000004, 0.517351, 0.562499, 0.549591, 0.481159, 0.390979, 0.299134, 0.237115, 0.213135, 0.199578, 0.191979, 0.204259, 0.241525, 0.289981, 0.28075, 0.2986, 0.345537, 0.36528700000000003, 0.47762899999999997, 0.43331300000000006, 0.3423609999999999, 0.16218200000000005, 0.230155, 0.424217, 0.517679, 0.60119, 0.620478, 0.596514, 0.524306, 0.441709, 0.352102, 0.279927, 0.251743, 0.23199, 0.217346, 0.232096, 0.26328, 0.305077, 0.23192999999999997, 0.30958600000000003, 0.304293, 0.277467, 0.219742, -0.025111999999999912, -0.23779899999999998, -0.163512, -0.035134, 0.193598, 0.515816, 0.581183, 0.586399, 0.563891, 0.499941, 0.412086, 0.32208, 0.262308, 0.243962, 0.225871, 0.212587, 0.228555, 0.271589, 0.32093, 0.27313, 0.102026, -0.08380899999999997, -0.208227, -0.290144, -0.32026199999999994, -0.19953500000000002, 0.17632000000000003, -0.0013239999999999919, 0.17747700000000005, 0.413239, 0.539162, 0.577288, 0.556554, 0.486225, 0.4025, 0.321192, 0.261752, 0.244591, 0.228743, 0.215076, 0.229709, 0.273683, 0.331905, 0.325171, 0.33566, 0.285293, 0.14774200000000004, -0.154235, -0.273845, -0.26726799999999995, -0.19447599999999998, -0.08911100000000005, 0.14967299999999994, 0.36712300000000003, 0.532343, 0.569004, 0.54952, 0.484059, 0.40113, 0.320597, 0.261831, 0.243965, 0.226868, 0.215741, 0.233008, 0.269654, 0.320062, 0.292293, 0.284096, 0.21491699999999997, 0.074795, 0.08021600000000001, -0.20338099999999998, 0.011428999999999967, 0.36533, -0.02469700000000008, 0.15724300000000002, 0.38240799999999997, 0.470171, 0.526867, 0.517318, 0.450473, 0.362296, 0.287631, 0.237325, 0.221583, 0.208269, 0.195255, 0.207143, 0.248302, 0.30043, 0.212217, 0.020213000000000036, -0.115265, -0.03383400000000003, 0.038925999999999905, 0.05778899999999998, 0.036183999999999994, 0.33131, 0.34502299999999997, 0.44458499999999995, 0.5633870000000001, 0.7111759999999999, 0.734307, 0.690472, 0.59339, 0.491791, 0.412999, 0.352443, 0.325303, 0.308096, 0.301958, 0.318923, 0.365614, 0.423747, 0.32987, 0.18646400000000002, 0.239433, 0.362533, 0.399753, 0.45230899999999996, 0.472086, 0.470874, 0.5322960000000001, 0.520548, 0.577105, 0.6867030000000001, 0.72108, 0.682623, 0.592517, 0.493389, 0.412742, 0.359759, 0.344714, 0.332602, 0.320746, 0.321095, 0.355796, 0.412661, 0.319454, 0.15070999999999996, -0.001609000000000027, -0.09623700000000002, -0.12387899999999996, -0.14788899999999994, -0.11872000000000005, -0.033864000000000005, 0.09022299999999994, 0.29966500000000007, 0.511424, 0.6847219999999999, 0.72537, 0.694525, 0.618299, 0.517267, 0.431068, 0.379537, 0.36755, 0.33808, 0.316198, 0.330327, 0.375464, 0.429608, 0.323735, 0.176483, 0.02563299999999996, -0.09893200000000002, -0.1157919999999999, -0.10667400000000005, -0.10019200000000006, -0.019772000000000012, 0.07041399999999998, 0.29522599999999993, 0.548668, 0.7009610000000001, 0.725067, 0.680669, 0.605617, 0.510681, 0.426242, 0.372256, 0.357699, 0.345086, 0.335152, 0.344676, 0.388389, 0.453455, 0.351462, 0.17259200000000002, -0.00635800000000003, -0.14508100000000002, -0.187975, -0.13675000000000004, -0.07742300000000002, 0.30993400000000004, -0.02497400000000005, 0.42402900000000004, 0.45106399999999996, 0.548987, 0.611976, 0.601913, 0.532909, 0.449077, 0.363041, 0.279464, 0.227403, 0.204831, 0.18183, 0.184805, 0.223343, 0.271466, 0.156583, -0.062359000000000026, -0.28293100000000004, -0.44215299999999996, -0.522442, -0.565038, -0.545979, -0.46729799999999994, -0.324055, -0.08001800000000003, 0.18368399999999996, 0.348287, 0.405332, 0.395716, 0.332692, 0.260963, 0.20384, 0.168938, 0.164207, 0.162491, 0.162383, 0.182786, 0.225543, 0.275249, 0.16218899999999997, -0.04649500000000001, -0.266006, -0.40484200000000004, -0.45321399999999995, -0.47487700000000005, -0.47240899999999997, -0.38905700000000004, -0.26657299999999995, -0.045632000000000006, 0.18752399999999997, 0.371073, 0.442518, 0.433837, 0.371997, 0.29396, 0.227497, 0.181389, 0.168318, 0.162735, 0.160939, 0.179674, 0.221793, 0.273297, 0.15402500000000002, -0.0071470000000000145, -0.10875699999999999, -0.14550999999999997, -0.13366700000000004, -0.113182, -0.12981900000000002, 0.15810000000000002, 0.145243, 0.21578999999999993, 0.42052, 0.5485899999999999, 0.579251, 0.538789, 0.456143, 0.360278, 0.267219, 0.193365, 0.171902, 0.164317, 0.161003, 0.179158, 0.220604, 0.26986, 0.146063, 0.006774000000000002, 0.125817, 0.196347, 0.26961899999999994, 0.36282800000000004, 0.39123700000000006, 0.354453, 0.395545, 0.36636500000000005, 0.633687, 0.662268, 0.62938, 0.570433, 0.446029, 0.314446, 0.218786, 0.171785, 0.163582, 0.161279, 0.162356, 0.183856, 0.227124, 0.276812, 0.237731, 0.22243100000000002, 0.096579, -0.14882800000000002, -0.08785899999999996, -0.17754999999999999, 0.01611499999999999, -0.09191200000000005, -0.028299999999999992, 0.29899200000000004, 0.36279, 0.444796, 0.490891, 0.488919, 0.421379, 0.341068, 0.265144, 0.21206, 0.198311, 0.190394, 0.185357, 0.20405, 0.249841, 0.306654, 0.21900399999999998, 0.19959900000000003, 0.18338900000000002, 0.212441, 0.22703099999999998, -0.07569599999999999, -0.16001100000000001, -0.14183700000000005, 0.065554, 0.05364300000000005, 0.27716599999999997, 0.47489299999999995, 0.576007, 0.574161, 0.504354, 0.420518, 0.347542, 0.297539, 0.284076, 0.266854, 0.253163, 0.270824, 0.31804, 0.376584, 0.24824399999999996, 0.083978, -0.07699, -0.160491, -0.19626299999999997, -0.23700300000000007, -0.22057300000000002, -0.153767, 0.04099799999999998, 0.33256299999999994, 0.46233599999999997, 0.567563, 0.623882, 0.62023, 0.55055, 0.460753, 0.388781, 0.334519, 0.307374, 0.290798, 0.285544, 0.302925, 0.347622, 0.407787, 0.279413, 0.12412599999999996, -0.006647999999999987, -0.09128400000000003, -0.11979700000000004, -0.13983, -0.06709500000000002, 0.06858900000000001, 0.373483, 0.31945900000000005, 0.45761399999999997, 0.62388, 0.680197, 0.643403, 0.559832, 0.469155, 0.383829, 0.322497, 0.308558, 0.30109, 0.28556, 0.295127, 0.340275, 0.39902, 0.277314, 0.14559899999999998, 0.0006750000000000367, -0.09266600000000003, -0.14059699999999997, -0.09464499999999998, -0.1706700000000001, 0.02747199999999994, 0.12569799999999998, 0.268865, 0.47804399999999997, 0.6389520000000001, 0.690586, 0.648691, 0.570604, 0.482732, 0.398694, 0.330868, 0.308701, 0.292731, 0.277933, 0.289647, 0.333259, 0.391032, 0.26590199999999997, 0.12781200000000004, 0.028101000000000043, 0.148575, 0.14858799999999994, 0.255452, 0.29802700000000004, 0.47330900000000004, 0.608564, 0.48312700000000003, 0.762641, 0.757742, 0.713863, 0.674429, 0.589296, 0.487713, 0.396548, 0.335616, 0.302242, 0.270134, 0.252068, 0.265345, 0.301504, 0.3513, 0.32453, 0.364518, 0.429343, 0.362897, 0.4402170000000001, 0.45463600000000004, 0.270232, 0.11798499999999998, 0.192984, 0.538686, 0.580453, 0.6099439999999999, 0.614404, 0.619265, 0.552762, 0.456491, 0.360388, 0.29232, 0.252062, 0.223858, 0.2092, 0.217371, 0.252773, 0.302753, 0.270691, 0.177688, 0.14266900000000002, -0.013827000000000034, 0.15771799999999997, 0.324147, 0.0048040000000000305, 0.36377600000000004, 0.14262599999999998, 0.24446400000000001, 0.341727, 0.429333, 0.507696, 0.516008, 0.446463, 0.364429, 0.29147, 0.240205, 0.226205, 0.21072, 0.198204, 0.21391, 0.25317, 0.294111, 0.252973, 0.14616, 0.12855199999999997, 0.17743299999999998, 0.06517200000000001, -0.021533000000000024, 0.00739799999999996, 0.03506799999999999, 0.02207199999999998, 0.11064399999999996, 0.31064499999999995, 0.48658199999999996, 0.5552320000000001, 0.546092, 0.472567, 0.38961, 0.311044, 0.249834, 0.228351, 0.217275, 0.20566, 0.217978, 0.262722, 0.307493, 0.225606, 0.09902300000000003, -0.13555, -0.246332, -0.323761, -0.298365, -0.29680999999999996, -0.23619700000000005, -0.15215600000000007, 0.061388, 0.28431, 0.46845799999999993, 0.5420119999999999, 0.528097, 0.448948, 0.361014, 0.283702, 0.228969, 0.199547, 0.17564, 0.166123, 0.183352, 0.224885, 0.250282, 0.11074299999999998, -0.08010099999999998, -0.24427900000000002, -0.271325, -0.21882199999999996, -0.266185, -0.352327, -0.24814199999999997, -0.11058699999999999, 0.08065199999999995, 0.32770800000000005, 0.49253500000000006, 0.550071, 0.542349, 0.466492, 0.385718, 0.317514, 0.269538, 0.255613, 0.241215, 0.229851, 0.248228, 0.289258, 0.32242800000000005, 0.19072699999999998, 0.017307000000000017, -0.164317, -0.275799, -0.31074900000000005, -0.32756799999999997, -0.347409, -0.29157099999999997, -0.158632, 0.05417000000000005, 0.24497599999999997, 0.44869000000000003, 0.511008, 0.499057, 0.451715, 0.372358, 0.294489, 0.238049, 0.219853, 0.202062, 0.196996, 0.221055, 0.259951, 0.292458, 0.181337, 0.00261100000000003, -0.13697500000000007, -0.18148799999999998, -0.07460899999999998, -0.09020100000000003, -0.08556400000000008, 0.14078199999999996, 0.19406999999999996, 0.20509900000000003, 0.368829, 0.561465, 0.633571, 0.627085, 0.55022, 0.463278, 0.382246, 0.321683, 0.306347, 0.297381, 0.288274, 0.303446, 0.33919, 0.38288700000000003, 0.35616600000000004, 0.345515, 0.24614699999999998, 0.322837, 0.38911399999999996, 0.381289, 0.41207800000000006, 0.39368500000000006, 0.43519, 0.43223200000000006, 0.661318, 0.642078, 0.582373, 0.581652, 0.515883, 0.431839, 0.350774, 0.292356, 0.276769, 0.257764, 0.236494, 0.246371, 0.282796, 0.307362, 0.17785299999999998, 0.053207000000000004, 0.071019, -0.014577000000000007, 0.272393, 0.038329999999999975, -0.05765399999999998, -0.10178799999999999, -0.004384999999999972, 0.18362900000000004, 0.3202479999999999, 0.47306899999999996, 0.594952, 0.618041, 0.527967, 0.423354, 0.335435, 0.251331, 0.202603, 0.17876, 0.168071, 0.18395, 0.224311, 0.250444, 0.11986599999999997, -0.011805999999999983, -0.17393999999999993, -0.286263, -0.32195999999999997, -0.34608099999999997, -0.34943500000000005, -0.13587, 0.04626000000000002, 0.10771399999999998, 0.336676, 0.46174000000000004, 0.5166449999999999, 0.509567, 0.422984, 0.332185, 0.26045, 0.207222, 0.190592, 0.179951, 0.174107, 0.191754, 0.231244, 0.26095599999999997, 0.10802300000000001, -0.07852199999999998, -0.15985099999999997, -0.252499, -0.23770999999999998, -0.028744999999999965, 0.172056, 0.187769, 0.244431, 0.228049, 0.31326099999999996, 0.44409199999999993, 0.5056240000000001, 0.503267, 0.427292, 0.342303, 0.272576, 0.224662, 0.2127, 0.190839, 0.175306, 0.189412, 0.225665, 0.24518599999999996, 0.080617, -0.09401100000000001, -0.235024, -0.26069600000000004, -0.41828200000000004, -0.40732399999999996, -0.557291, -0.19410499999999997, -0.193396, 0.01771299999999998, 0.23237599999999997, 0.418964, 0.496131, 0.514769, 0.452292, 0.373262, 0.303311, 0.246997, 0.220178, 0.20616, 0.200052, 0.213869, 0.258235, 0.296393, 0.24773099999999998, 0.36147, 0.06597599999999998, 0.221341, 0.37262300000000004, 0.387473, 0.290057, 0.12445, 0.241087, 0.482626, 0.43442800000000004, 0.513857, 0.547778, 0.553246, 0.489513, 0.404779, 0.331039, 0.274292, 0.252591, 0.241157, 0.228013, 0.229425, 0.265347, 0.312371, 0.307086, 0.24721899999999997, 0.141297, 0.04892099999999999, 0.07111899999999999, 0.08724500000000002, -0.03920400000000002, 0.18691599999999997, 0.186564, 0.21655400000000002, 0.396981, 0.510705, 0.5434950000000001, 0.53179, 0.450738, 0.357267, 0.274637, 0.218261, 0.202935, 0.193977, 0.17907, 0.184443, 0.221219, 0.226591, 0.08126, 0.019198999999999994, 0.093494, 0.160771, 0.213851, 0.24101499999999998, 0.253027, 0.237681, 0.295695, 0.279312, 0.40359, 0.55632, 0.5411760000000001, 0.52327, 0.443356, 0.347201, 0.263507, 0.205901, 0.189837, 0.181422, 0.17253, 0.185849, 0.226514, 0.242089, 0.223147, 0.17364299999999996, 0.198738, 0.11557, 0.07972600000000002, 0.08319800000000005, 0.327859, 0.3387760000000001, 0.45264699999999997, 0.487185, 0.566079, 0.571209, 0.576924, 0.564742, 0.44858, 0.341818, 0.297325, 0.241036, 0.222988, 0.217132, 0.190871, 0.194764, 0.246351, 0.268891, 0.265326, 0.170282, 0.04771600000000001, -0.00509699999999999, -0.164184, -0.233485, -0.15379199999999998, -0.016940999999999984, -0.23754700000000006, -0.14148500000000003, 0.145453, 0.398247, 0.461956, 0.486174, 0.427613, 0.348514, 0.279932, 0.231658, 0.219684, 0.213228, 0.20721, 0.221008, 0.266934, 0.285634, 0.14516600000000002, 0.026370000000000005, -0.12656799999999996, -0.205266, -0.2136, -0.25604799999999994, -0.2525569999999999, 0.023626000000000036, -0.021927999999999948, 0.21014499999999997, 0.37295600000000007, 0.540139, 0.587192, 0.57511, 0.49873, 0.417431, 0.346755, 0.291582, 0.276634, 0.266985, 0.258317, 0.270505, 0.292749, 0.28902300000000003, 0.172087, 0.12126999999999999, 0.007695000000000007, -0.14058199999999998, -0.13748099999999996, -0.12638900000000008, -0.117761, 0.45018900000000006, 0.31265600000000004, 0.178097, 0.345046, 0.459098, 0.60288, 0.620455, 0.522889, 0.410045, 0.314461, 0.242394, 0.21025, 0.195214, 0.185272, 0.199562, 0.240453, 0.24836999999999998, 0.11453199999999997, -0.031062999999999952, -0.146331, -0.20609800000000006, -0.20042899999999997, -0.1926690000000001, -0.19168400000000008, 0.020398000000000027, 0.114815, 0.507298, 0.531143, 0.60485, 0.6088830000000001, 0.571271, 0.472488, 0.370553, 0.283936, 0.220757, 0.197431, 0.178995, 0.166677, 0.182647, 0.223878, 0.231141, 0.12253699999999998, -0.025932999999999984, -0.17893899999999996, -0.18025100000000005, -0.21060099999999998, -0.09411799999999998, -0.16010999999999997, 0.090337, 0.11909700000000001, 0.25677399999999995, 0.49405499999999997, 0.567965, 0.617027, 0.639297, 0.555709, 0.41901, 0.30997, 0.241886, 0.209391, 0.186467, 0.177209, 0.190477, 0.228057, 0.23056700000000002, 0.09891299999999997, 0.014058999999999988, 0.09476199999999999, 0.11290799999999995, 0.21372700000000003, 0.36308399999999996, 0.319442, 0.329743, 0.30831900000000007, 0.5541280000000001, 0.5536399999999999, 0.628188, 0.635607, 0.623791, 0.536779, 0.428837, 0.33139, 0.260553, 0.236913, 0.216757, 0.19569, 0.204219, 0.241047, 0.262704, 0.16629499999999997, 0.059087, -0.024457000000000007, -0.11500699999999997, -0.012058999999999931, -0.040139999999999953, -0.08499899999999994, -0.009861000000000009, 0.03764899999999993, 0.22397900000000004, 0.44889900000000005, 0.630765, 0.709078, 0.702012, 0.59646, 0.486474, 0.389889, 0.321773, 0.302266, 0.286984, 0.278245, 0.289872, 0.342151, 0.362088, 0.23164300000000002, 0.135438, 0.049350000000000005, 0.0013859999999999983, -0.03904300000000005, -0.06259999999999999, -0.043831000000000064, 0.024556000000000022, 0.052817, 0.16971099999999995, 0.22969899999999993, 0.376771, 0.484968, 0.534154, 0.482741, 0.384724, 0.295596, 0.245608, 0.233988, 0.232878, 0.219182, 0.217996, 0.246688, 0.24017899999999998, 0.14636900000000003, -0.028731000000000007, -0.178112, -0.22276199999999996, -0.180006, -0.206399, -0.188118, -0.12425900000000001, 0.413129, 0.38494999999999996, 0.416239, 0.588654, 0.631259, 0.592983, 0.516189, 0.438566, 0.356927, 0.314105, 0.296321, 0.279272, 0.261768, 0.269953, 0.298921, 0.296532, 0.338901, 0.330343, 0.35943400000000003, 0.273129, 0.387274, 0.186251, 0.5071479999999999, -0.14523999999999992, 0.439258, 0.620733, 0.6462129999999999, 0.596295, 0.62538, 0.606907, 0.523615, 0.447962, 0.372107, 0.32179, 0.312956, 0.293492, 0.273102, 0.278872, 0.317353, 0.318822, 0.189595, 0.05653400000000003, -0.09932199999999997, -0.19896400000000003, -0.20209900000000003, -0.16579300000000008, 0.184838, 0.14321099999999998, 0.21996399999999994, 0.414394, 0.482674, 0.5721149999999999, 0.6437649999999999, 0.633928, 0.55174, 0.456362, 0.371818, 0.312049, 0.292982, 0.273803, 0.247932, 0.246005, 0.276843, 0.280595, 0.37656999999999996, 0.246265, -0.05931599999999998, -0.052566, 0.27490000000000003, -0.05352800000000002, 0.04363899999999998, 0.19420800000000005, 0.27299899999999994, 0.292677, 0.444793, 0.610645, 0.682821, 0.696412, 0.616268, 0.519953, 0.442585, 0.383019, 0.36137, 0.348629, 0.338895, 0.353569, 0.389863, 0.385065, 0.303554, 0.21320299999999998, 0.296917, 0.28384200000000004, 0.43827800000000006, 0.47884099999999996, 0.48766699999999996, 0.459985, 0.5165820000000001, 0.508994, 0.547564, 0.694471, 0.725784, 0.719338, 0.639774, 0.549583, 0.468538, 0.409272, 0.391581, 0.374446, 0.346581, 0.354376, 0.400162, 0.394948, 0.29599400000000003, 0.144642, 0.038947000000000065, -0.043425999999999965, -0.08263300000000007, -0.10404399999999991, -0.06144800000000006, 0.009367999999999932, 0.39932199999999995, 0.46692799999999995, 0.546775, 0.720483, 0.753504, 0.743044, 0.658007, 0.561367, 0.484021, 0.425714, 0.40327, 0.394105, 0.386676, 0.403528, 0.448281, 0.447764, 0.37658699999999995, 0.443893, 0.27176800000000007, 0.11183699999999996, 0.022435000000000094, 0.02625899999999992, 0.04575600000000002, 0.01635999999999993, 0.13733499999999998, 0.5395650000000001, 0.6594949999999999, 0.720134, 0.724227, 0.716107, 0.639839, 0.551225, 0.471087, 0.412316, 0.393493, 0.379245, 0.370733, 0.387446, 0.433881, 0.454899, 0.414495, 0.41362099999999996, 0.368965, 0.11261100000000002, -0.11086200000000002, -0.15955300000000006, 0.127479, 0.038358, 0.274349, 0.39572000000000007, 0.565798, 0.652615, 0.685144, 0.700536, 0.621776, 0.537616, 0.465765, 0.416309, 0.402786, 0.388857, 0.365907, 0.365065, 0.40407, 0.40692, 0.33307700000000007, 0.25510800000000006, 0.07068000000000008, -0.045849999999999946, -0.09883800000000009, -0.117784, -0.04879800000000001, 0.03645299999999996, 0.187589, 0.31909400000000004, 0.524505, 0.675505, 0.724049, 0.73141, 0.644454, 0.551326, 0.4726, 0.409289, 0.382261, 0.370426, 0.354422, 0.363265, 0.398584, 0.387728, 0.3236939999999999, 0.225906, 0.09832400000000008, 0.040974000000000066, -0.009732999999999992, -0.06912200000000002, -0.036694000000000004, 0.01461800000000002, 0.13810699999999998, 0.33479499999999995, 0.521639, 0.698568, 0.742306, 0.742383, 0.664295, 0.566444, 0.480241, 0.422095, 0.404205, 0.395226, 0.375836, 0.383925, 0.432789, 0.431662, 0.33347600000000005, 0.19943099999999997, 0.002889999999999948, -0.12004100000000006, 0.06280000000000008, 0.054338, 0.09031900000000004, 0.32364000000000004, 0.265651, 0.15802099999999997, 0.275999, 0.48612600000000006, 0.628482, 0.673792, 0.613185, 0.528609, 0.453342, 0.40183, 0.39176, 0.373294, 0.355471, 0.355137, 0.39362, 0.405543, 0.30444399999999994, 0.216893, 0.2862219999999999, 0.404208, 0.47366300000000006, 0.48822600000000005, 0.386826, 0.32132, 0.224294, 0.08347399999999999, 0.170759, 0.389684, 0.50641, 0.568237, 0.509893, 0.449972, 0.407265, 0.359003, 0.33899, 0.32575, 0.323857, 0.35158, 0.395684, 0.386666, 0.285787, 0.11512099999999997, 0.055181000000000036, -0.011641000000000012, -0.03664500000000004, -0.18320800000000004, -0.19264900000000007, -0.0061269999999999936, 0.07884200000000008, 0.2831429999999999, 0.24795899999999993, 0.353055, 0.47457999999999995, 0.538022, 0.485693, 0.399052, 0.325743, 0.281518, 0.265859, 0.264004, 0.264053, 0.281372, 0.330002, 0.31294, 0.27534600000000004, 0.248894, 0.06102799999999997, -0.043745000000000034, -0.03581499999999993, -0.03317700000000001, -0.02908900000000003, -0.11528300000000002, 0.020504999999999995, 0.249099, 0.365008, 0.5334340000000001, 0.603906, 0.612338, 0.555685, 0.478039, 0.405555, 0.353317, 0.309965, 0.264471, 0.234036, 0.235436, 0.279138, 0.272202, 0.218635, 0.169072, 0.09150000000000003, 0.02508699999999997, 0.10968100000000003, 0.01894499999999999, 0.05113800000000002, 0.10557000000000005, 0.24802100000000005, 0.222032, 0.31843899999999997, 0.42049699999999995, 0.518925, 0.577274, 0.506815, 0.417917, 0.340146, 0.282672, 0.265361, 0.255784, 0.248557, 0.256829, 0.287672, 0.30156900000000003, 0.379805, 0.39749899999999994, 0.41344, 0.317769, 0.21409900000000004, -0.086596, -0.604277, -0.5088239999999999, -0.366323, -0.112211, 0.29481900000000005, 0.44078700000000004, 0.520887, 0.578736, 0.517489, 0.381118, 0.243199, 0.186765, 0.169021, 0.163447, 0.161658, 0.18057, 0.225039, 0.22325799999999998, 0.15573, -0.031803000000000026, -0.32515799999999995, -0.386538, -0.36519599999999997, -0.37128900000000004, -0.315511, -0.2809360000000001, -0.24515400000000004, -0.012793999999999972, 0.34611499999999995, 0.39571199999999995, 0.469708, 0.515075, 0.445488, 0.364892, 0.292421, 0.236031, 0.202925, 0.180758, 0.171465, 0.188599, 0.230367, 0.214679, 0.194687, -0.03328599999999998, -0.12491599999999997, -0.11989700000000003, -0.08396599999999999, -0.07546599999999992, -0.037263999999999964, 0.212246, 0.236601, 0.28681599999999996, 0.404017, 0.5827420000000001, 0.6582870000000001, 0.67463, 0.595719, 0.503906, 0.460173, 0.382499, 0.330219, 0.328547, 0.304956, 0.29676, 0.344379, 0.334521, 0.21965699999999996, 0.10797699999999999, 0.22392500000000004, 0.25573799999999997, 0.329284, 0.37834599999999996, 0.39044199999999996, 0.385432, 0.352746, 0.342502, 0.41915800000000003, 0.587321, 0.616873, 0.643241, 0.571289, 0.485311, 0.407788, 0.349789, 0.313883, 0.284856, 0.271072, 0.277161, 0.315103, 0.332544, 0.35969, 0.39365300000000003, 0.43237200000000003, 0.29470700000000005, 0.371081, 0.46620100000000003, 0.4870479999999999, 0.34909500000000004, 0.384215, 0.574674, 0.532678, 0.6082259999999999, 0.660658, 0.658272, 0.576519, 0.490072, 0.417296, 0.373601, 0.349625, 0.329279, 0.31143, 0.319094, 0.362253, 0.404821, 0.32725099999999996, 0.36361199999999994, 0.23772899999999997, 0.18524300000000005, 0.23599399999999998, 0.26437599999999994, 0.036321999999999965, 0.5366299999999999, 0.38179399999999997, 0.319346, 0.638436, 0.653988, 0.6210450000000001, 0.637834, 0.560586, 0.475176, 0.403748, 0.34925, 0.33434, 0.326991, 0.31727, 0.332668, 0.378773, 0.364845, 0.248298, 0.10520199999999996, -0.007978999999999958, -0.11195900000000003, -0.174778, -0.18388499999999997, -0.18500099999999997, -0.13566900000000004, -0.022730000000000028, 0.184265, 0.39467300000000005, 0.590144, 0.636629, 0.684185, 0.597059, 0.503734, 0.425709, 0.37007, 0.347943, 0.330585, 0.319686, 0.333126, 0.375482, 0.369218, 0.28121799999999997, 0.14624900000000002, 0.045686000000000004, -0.10788200000000003, -0.1891879999999999, -0.28186999999999995, -0.317249, -0.15671200000000007, 0.03330899999999992, 0.25821099999999997, 0.448042, 0.553241, 0.609279, 0.657153, 0.581071, 0.495996, 0.413351, 0.355443, 0.332049, 0.314517, 0.295583, 0.302025, 0.34314, 0.32137, 0.197475, 0.07670199999999999, 0.003829000000000027, -0.10934500000000003, -0.24364399999999997, -0.20314699999999997, 0.473352, 0.12192300000000006, 0.040160000000000085, 0.615669, 0.5344220000000001, 0.518158, 0.578264, 0.621773, 0.536841, 0.449889, 0.376245, 0.323615, 0.300309, 0.275629, 0.267864, 0.283026, 0.320942, 0.305372, 0.299637, 0.154754, 0.08788999999999997, -0.10463899999999998, -0.14436899999999997, -0.14102600000000004, -0.12436599999999998, 0.24455100000000002, 0.143924, 0.5982430000000001, 0.696106, 0.647652, 0.661192, 0.650904, 0.57096, 0.483846, 0.407224, 0.353777, 0.328746, 0.310314, 0.304107, 0.322639, 0.369525, 0.39426700000000003, 0.299998, 0.402682, 0.31856700000000004, 0.24322499999999997, 0.29858699999999994, 0.267929, 0.3393189999999999, 0.31179300000000004, 0.336714, 0.322945, 0.307909, 0.447236, 0.543516, 0.623635, 0.562408, 0.471214, 0.387939, 0.34647, 0.333057, 0.322943, 0.315429, 0.322059, 0.363193, 0.36336100000000005, 0.241709, 0.14329400000000003, 0.024777999999999967, -0.04854400000000003, -0.16859000000000002, -0.324661, -0.34995100000000007, -0.28903900000000005, -0.18922500000000003, -0.05366800000000005, 0.15569000000000005, 0.36510999999999993, 0.5006200000000001, 0.56154, 0.469028, 0.377501, 0.308876, 0.270464, 0.258687, 0.248981, 0.24334, 0.262027, 0.311614, 0.300798, 0.16734100000000002, 0.05747200000000002, -0.063743, -0.157717, -0.19563400000000009, -0.19983499999999998, -0.16517099999999996, 0.07297600000000004, 0.19835099999999994, 0.41354100000000005, 0.573825, 0.7039040000000001, 0.8141349999999999, 0.789989, 0.656495, 0.513353, 0.402029, 0.324511, 0.299546, 0.281943, 0.260322, 0.266598, 0.308893, 0.29297, 0.18246, 0.09151399999999998, -0.006228999999999929, -0.09001700000000001, -0.12912500000000005, -0.13648100000000007, -0.12589499999999998, 0.017881999999999953, 0.021001000000000047, 0.22415999999999991, 0.428982, 0.631528, 0.6936829999999999, 0.731417, 0.640813, 0.530773, 0.424774, 0.335634, 0.30349, 0.285192, 0.268383, 0.274046, 0.295793, 0.26453800000000005, 0.14883599999999997, 0.05381399999999997, -0.049119000000000024, -0.135695, -0.182122, -0.219457, -0.193307, -0.09975599999999996, 0.046267999999999976, 0.49168000000000006, 0.55026, 0.680501, 0.68317, 0.723967, 0.643241, 0.549954, 0.456765, 0.386748, 0.360309, 0.336348, 0.303732, 0.294933, 0.323594, 0.296224, 0.17844700000000002, 0.07256900000000005, 0.045857999999999954, 0.026572999999999958, -0.01725500000000002, 0.294236, 0.09287199999999995, 0.12428499999999998, 0.233535, 0.41847299999999993, 0.5571349999999999, 0.861854, 0.7373799999999999, 0.778025, 0.685941, 0.566917, 0.459525, 0.37734, 0.33537, 0.305521, 0.286049, 0.298591, 0.341489, 0.310589, 0.275648, 0.235368, 0.259295, 0.3224699999999999, 0.5419809999999999, 0.632294, 0.5296029999999999, 0.5857410000000001, 0.22481899999999994, 0.14594100000000004, 0.27598999999999996, 0.614195, 0.561677, 0.631755, 0.563712, 0.481504, 0.406743, 0.346377, 0.297701, 0.255239, 0.234029, 0.247091, 0.29301, 0.274719, 0.11849099999999999, 0.010534999999999961, 0.092084, 0.11385899999999999, 0.21240400000000004, 0.278114, 0.307825, 0.31296500000000005, 0.44253099999999995, 0.5173829999999999, 0.651807, 0.7957479999999999, 0.695415, 0.702089, 0.612927, 0.510335, 0.403897, 0.333915, 0.2968, 0.275429, 0.267097, 0.284625, 0.331374, 0.35678699999999997, 0.323071, 0.46116500000000005, 0.406705, 0.632731, 0.349922, 0.13707499999999995, -0.19245800000000002, 0.46227399999999996, 0.20180699999999996, 0.318689, 0.29911100000000007, 0.5774509999999999, 0.6727810000000001, 0.740213, 0.666636, 0.523586, 0.390524, 0.329125, 0.303532, 0.277971, 0.262828, 0.277504, 0.3217, 0.302076, 0.156391, 0.06470800000000004, -0.01125799999999999, -0.081959, -0.10819899999999993, -0.13125299999999995, -0.13841899999999996, -0.07781899999999997, 0.019730000000000025, 0.23182200000000008, 0.45353499999999997, 0.604292, 0.674768, 0.715055, 0.597811, 0.488268, 0.398994, 0.333196, 0.30561, 0.279913, 0.263276, 0.275101, 0.310039, 0.288886, 0.17675700000000003, 0.09485899999999997, 0.009588999999999959, -0.06257900000000005, -0.09390799999999999, -0.13438300000000003, -0.13683199999999995, -0.07173399999999996, 0.07042100000000007, 0.276643, 0.434039, 0.603291, 0.685101, 0.72405, 0.630474, 0.522621, 0.436821, 0.371874, 0.339807, 0.321934, 0.312503, 0.327947, 0.373363, 0.378907, 0.25715, 0.04208999999999996, -0.06563399999999997, -0.08010600000000001, 0.11466200000000004, 0.281512, -0.007318000000000047, 0.177886, 0.14436899999999997, 0.400283, 0.5231730000000001, 0.639409, 0.690721, 0.72301, 0.643487, 0.547915, 0.456588, 0.383765, 0.3622, 0.329677, 0.295763, 0.324658, 0.379258, 0.371514, 0.24991800000000003, 0.167773, 0.08095200000000002, 0.03307899999999997, 0.014168999999999987, 0.04325599999999996, -0.0024089999999999945, -0.010763999999999996, 0.42630599999999996, 0.315762, 0.709031, 0.594171, 0.683264, 0.731358, 0.634267, 0.532996, 0.45863, 0.40557, 0.384775, 0.380441, 0.379202, 0.396555, 0.402548, 0.34842, 0.204017, 0.045069000000000026, -0.06117699999999998, -0.04627400000000004, -0.05499900000000002, -0.17863999999999997, -0.0350609999999999, 0.17968900000000004, 0.21520199999999995, 0.260153, 0.394556, 0.532614, 0.633781, 0.694319, 0.608105, 0.516628, 0.434569, 0.379461, 0.363852, 0.360338, 0.358898, 0.360183, 0.399552, 0.381348, 0.230768, 0.161759, 0.31672200000000006, 0.31951499999999994, 0.426189, 0.4745039999999999, 0.471434, 0.449829, 0.47238900000000006, 0.460201, 0.5451550000000001, 0.658716, 0.726802, 0.756721, 0.66404, 0.557318, 0.46954, 0.406967, 0.382847, 0.366733, 0.339989, 0.333158, 0.361842, 0.342795, 0.23958700000000002, 0.18306, 0.11871399999999999, 0.03372900000000001, -0.029225999999999974, -0.04438200000000003, -0.06373300000000004, -0.01267599999999991, 0.10984300000000002, 0.330793, 0.553084, 0.750313, 0.7629900000000001, 0.76807, 0.672318, 0.560855, 0.466909, 0.407744, 0.388421, 0.37799, 0.369207, 0.376442, 0.406953, 0.374074, 0.275787, 0.252485, 0.22104099999999993, 0.05410500000000007, 0.07726100000000002, -0.021364999999999967, -0.015000000000000013, 0.35389500000000007, 0.25541, 0.753348, 0.825105, 0.796857, 0.818137, 0.799998, 0.715095, 0.619848, 0.530042, 0.439447, 0.40164, 0.386011, 0.375194, 0.390753, 0.438521, 0.432249, 0.36627400000000004, 0.276177, 0.15239800000000003, 0.11190900000000004, 0.09016499999999994, 0.13498100000000002, 0.14146900000000007, 0.390073, 0.43456400000000006, 0.662335, 0.707722, 0.829969, 0.720804, 0.735872, 0.626898, 0.514499, 0.432337, 0.377406, 0.357806, 0.346388, 0.341868, 0.359037, 0.416153, 0.43089299999999997, 0.332752, 0.24055100000000007, 0.153408, 0.057315000000000005, 0.0010139999999999594, 0.025846999999999953, -0.01487000000000005, 0.03193699999999999, 0.31901100000000004, 0.45767399999999997, 0.6876450000000001, 0.7035440000000001, 0.792006, 0.804913, 0.747082, 0.656186, 0.56368, 0.499513, 0.460594, 0.408153, 0.365509, 0.371835, 0.416008, 0.394418, 0.290159, 0.22859800000000002, 0.168906, 0.11261699999999997, 0.09798699999999994, 0.06896599999999997, -0.196448, 0.140145, 0.02700600000000003, -0.030193999999999943, 0.21468700000000002, 0.618449, 0.549944, 0.601994, 0.552151, 0.467911, 0.393813, 0.348619, 0.329381, 0.306883, 0.294461, 0.311328, 0.360979, 0.356376, 0.25277700000000003, 0.11776799999999998, 0.08202199999999998, 0.043658000000000086, 0.02660999999999991, 0.046753000000000045, 0.229618, 0.31821299999999997, 0.343304, 0.375174, 0.19479499999999994, 0.389011, 0.499722, 0.586053, 0.520949, 0.440001, 0.375372, 0.331361, 0.32631, 0.323539, 0.318097, 0.334314, 0.372819, 0.383536, 0.425459, 0.229665, 0.29926, 0.424384, 0.463637, 0.484135, 0.29653099999999993, 0.21413900000000002, 0.303097, 0.42983, 0.42203599999999997, 0.385486, 0.49860399999999994, 0.602281, 0.555397, 0.476364, 0.402401, 0.344608, 0.328072, 0.318052, 0.310718, 0.331727, 0.386462, 0.385143, 0.29264, 0.23368299999999997, 0.14924899999999997, 0.078156, 0.498645, 0.08049600000000001, 0.04863000000000006, 0.225673, 0.22322799999999998, 0.441512, 0.699561, 0.796118, 0.643697, 0.772098, 0.738495, 0.659663, 0.572841, 0.497861, 0.458209, 0.426674, 0.388645, 0.387155, 0.431839, 0.426452, 0.324731, 0.25019399999999997, 0.17655699999999996, 0.10846299999999998, 0.07512700000000005, 0.07000699999999993, 0.09197, 0.159323, 0.27387300000000003, 0.47347200000000006, 0.642212, 0.809592, 0.889073, 0.919885, 0.819154, 0.707811, 0.608508, 0.527551, 0.487174, 0.452396, 0.433251, 0.439692, 0.476734, 0.46344500000000005, 0.3603139999999999, 0.28254999999999997, 0.21236900000000003, 0.15076, 0.343844, 0.24950700000000003, 0.29152999999999996, 0.308265, 0.431445, 0.459631, 0.610041, 0.7411409999999999, 0.729869, 0.656756, 0.594577, 0.518616, 0.445949, 0.396685, 0.391711, 0.394502, 0.388339, 0.37864, 0.405423, 0.391624, 0.272905, 0.19848300000000002, 0.12373699999999999, 0.05441699999999994, 0.04368300000000003, 0.03607799999999994, -0.09722799999999998, -0.22318500000000002, -0.14623999999999998, 0.16151700000000002, 0.40348699999999993, 0.543347, 0.649003, 0.692091, 0.616972, 0.504513, 0.412595, 0.37483, 0.359001, 0.349236, 0.328719, 0.33357
...